
  EPA STORM WATER MANAGEMENT MODEL - VERSION 5.2 (Build 5.2.4)
  PYSWMM TOOLKIT API - VERSION v1.0 (2023-11-27)
  ------------------------------------------------------------

  Example 1 

  Analysis begun on:  Tue Feb 25 16:00:16 2025
  Analysis ended on:  Tue Feb 25 16:00:16 2025
  Total elapsed time: < 1 sec